data_ZIF8AP
_audit_creation_date              2019-04-08
_audit_creation_method            'Materials Studio'
_symmetry_space_group_name_H-M    'P1'
_symmetry_Int_Tables_number       1
_symmetry_cell_setting            triclinic
loop_
_symmetry_equiv_pos_as_xyz
  x,y,z
_cell_length_a                    16.9932
_cell_length_b                    16.9932
_cell_length_c                    16.9932
_cell_angle_alpha                 90.0000
_cell_angle_beta                  90.0000
_cell_angle_gamma                 90.0000
loop_
_atom_site_label
_atom_site_type_symbol
_atom_site_fract_x
_atom_site_fract_y
_atom_site_fract_z
_atom_site_U_iso_or_equiv
_atom_site_adp_type
_atom_site_occupancy
C2   C     0.37010   0.89696   0.68675   0.02601  Uiso   1.00
N1   N     0.41001   0.96738   0.68309   0.01981  Uiso   1.00
H2   H     0.37741   0.85654   0.72281   0.03635  Uiso   1.00
H1   H     0.36176   0.11939   0.57470   0.03635  Uiso   1.00
C2   C     0.87010   0.39696   0.18675   0.02601  Uiso   1.00
N1   N     0.91001   0.46738   0.18309   0.01981  Uiso   1.00
H2   H     0.87741   0.35654   0.22281   0.03635  Uiso   1.00
H1   H     0.86176   0.61939   0.07470   0.03635  Uiso   1.00
C2   C     0.62990   0.10304   0.68675   0.02601  Uiso   1.00
N1   N     0.58999   0.03262   0.68309   0.01981  Uiso   1.00
H2   H     0.62259   0.14346   0.72281   0.03635  Uiso   1.00
H1   H     0.63824   0.88061   0.57470   0.03635  Uiso   1.00
C2   C     0.12990   0.60304   0.18675   0.02601  Uiso   1.00
N1   N     0.08999   0.53262   0.18309   0.01981  Uiso   1.00
H2   H     0.12259   0.64346   0.22281   0.03635  Uiso   1.00
H1   H     0.13824   0.38061   0.07470   0.03635  Uiso   1.00
C2   C     0.62990   0.89696   0.31325   0.02601  Uiso   1.00
N1   N     0.58999   0.96738   0.31691   0.01981  Uiso   1.00
H2   H     0.62259   0.85654   0.27719   0.03635  Uiso   1.00
H1   H     0.63824   0.11939   0.42530   0.03635  Uiso   1.00
C2   C     0.12990   0.39696   0.81325   0.02601  Uiso   1.00
N1   N     0.08999   0.46738   0.81691   0.01981  Uiso   1.00
H2   H     0.12259   0.35654   0.77719   0.03635  Uiso   1.00
H1   H     0.13824   0.61939   0.92530   0.03635  Uiso   1.00
C2   C     0.37010   0.10304   0.31325   0.02601  Uiso   1.00
N1   N     0.41001   0.03262   0.31691   0.01981  Uiso   1.00
H2   H     0.37741   0.14346   0.27719   0.03635  Uiso   1.00
H1   H     0.36176   0.88061   0.42530   0.03635  Uiso   1.00
C2   C     0.87010   0.60304   0.81325   0.02601  Uiso   1.00
N1   N     0.91001   0.53262   0.81691   0.01981  Uiso   1.00
H2   H     0.87741   0.64346   0.77719   0.03635  Uiso   1.00
H1   H     0.86176   0.38061   0.92530   0.03635  Uiso   1.00
C2   C     0.68675   0.37010   0.89696   0.02601  Uiso   1.00
N1   N     0.68309   0.41001   0.96738   0.01981  Uiso   1.00
H2   H     0.72281   0.37741   0.85654   0.03635  Uiso   1.00
H1   H     0.57470   0.36176   0.11939   0.03635  Uiso   1.00
C2   C     0.18675   0.87010   0.39696   0.02601  Uiso   1.00
N1   N     0.18309   0.91001   0.46738   0.01981  Uiso   1.00
H2   H     0.22281   0.87741   0.35654   0.03635  Uiso   1.00
H1   H     0.07470   0.86176   0.61939   0.03635  Uiso   1.00
C2   C     0.68675   0.62990   0.10304   0.02601  Uiso   1.00
N1   N     0.68309   0.58999   0.03262   0.01981  Uiso   1.00
H2   H     0.72281   0.62259   0.14346   0.03635  Uiso   1.00
H1   H     0.57470   0.63824   0.88061   0.03635  Uiso   1.00
C2   C     0.18675   0.12990   0.60304   0.02601  Uiso   1.00
N1   N     0.18309   0.08999   0.53262   0.01981  Uiso   1.00
H2   H     0.22281   0.12259   0.64346   0.03635  Uiso   1.00
H1   H     0.07470   0.13824   0.38061   0.03635  Uiso   1.00
C2   C     0.31325   0.62990   0.89696   0.02601  Uiso   1.00
N1   N     0.31691   0.58999   0.96738   0.01981  Uiso   1.00
H2   H     0.27719   0.62259   0.85654   0.03635  Uiso   1.00
H1   H     0.42530   0.63824   0.11939   0.03635  Uiso   1.00
C2   C     0.81325   0.12990   0.39696   0.02601  Uiso   1.00
N1   N     0.81691   0.08999   0.46738   0.01981  Uiso   1.00
H2   H     0.77719   0.12259   0.35654   0.03635  Uiso   1.00
H1   H     0.92530   0.13824   0.61939   0.03635  Uiso   1.00
C2   C     0.31325   0.37010   0.10304   0.02601  Uiso   1.00
N1   N     0.31691   0.41001   0.03262   0.01981  Uiso   1.00
H2   H     0.27719   0.37741   0.14346   0.03635  Uiso   1.00
H1   H     0.42530   0.36176   0.88061   0.03635  Uiso   1.00
C2   C     0.81325   0.87010   0.60304   0.02601  Uiso   1.00
N1   N     0.81691   0.91001   0.53262   0.01981  Uiso   1.00
H2   H     0.77719   0.87741   0.64346   0.03635  Uiso   1.00
H1   H     0.92530   0.86176   0.38061   0.03635  Uiso   1.00
C2   C     0.89696   0.68675   0.37010   0.02601  Uiso   1.00
N1   N     0.96738   0.68309   0.41001   0.01981  Uiso   1.00
H2   H     0.85654   0.72281   0.37741   0.03635  Uiso   1.00
H1   H     0.11939   0.57470   0.36176   0.03635  Uiso   1.00
C2   C     0.39696   0.18675   0.87010   0.02601  Uiso   1.00
N1   N     0.46738   0.18309   0.91001   0.01981  Uiso   1.00
H2   H     0.35654   0.22281   0.87741   0.03635  Uiso   1.00
H1   H     0.61939   0.07470   0.86176   0.03635  Uiso   1.00
C2   C     0.10304   0.68675   0.62990   0.02601  Uiso   1.00
N1   N     0.03262   0.68309   0.58999   0.01981  Uiso   1.00
H2   H     0.14346   0.72281   0.62259   0.03635  Uiso   1.00
H1   H     0.88061   0.57470   0.63824   0.03635  Uiso   1.00
C2   C     0.60304   0.18675   0.12990   0.02601  Uiso   1.00
N1   N     0.53262   0.18309   0.08999   0.01981  Uiso   1.00
H2   H     0.64346   0.22281   0.12259   0.03635  Uiso   1.00
H1   H     0.38061   0.07470   0.13824   0.03635  Uiso   1.00
C2   C     0.89696   0.31325   0.62990   0.02601  Uiso   1.00
N1   N     0.96738   0.31691   0.58999   0.01981  Uiso   1.00
H2   H     0.85654   0.27719   0.62259   0.03635  Uiso   1.00
H1   H     0.11939   0.42530   0.63824   0.03635  Uiso   1.00
C2   C     0.39696   0.81325   0.12990   0.02601  Uiso   1.00
N1   N     0.46738   0.81691   0.08999   0.01981  Uiso   1.00
H2   H     0.35654   0.77719   0.12259   0.03635  Uiso   1.00
H1   H     0.61939   0.92530   0.13824   0.03635  Uiso   1.00
C2   C     0.10304   0.31325   0.37010   0.02601  Uiso   1.00
N1   N     0.03262   0.31691   0.41001   0.01981  Uiso   1.00
H2   H     0.14346   0.27719   0.37741   0.03635  Uiso   1.00
H1   H     0.88061   0.42530   0.36176   0.03635  Uiso   1.00
C2   C     0.60304   0.81325   0.87010   0.02601  Uiso   1.00
N1   N     0.53262   0.81691   0.91001   0.01981  Uiso   1.00
H2   H     0.64346   0.77719   0.87741   0.03635  Uiso   1.00
H1   H     0.38061   0.92530   0.86176   0.03635  Uiso   1.00
C2   C     0.89696   0.37010   0.68675   0.02601  Uiso   1.00
N1   N     0.96738   0.41001   0.68309   0.01981  Uiso   1.00
H2   H     0.85654   0.37741   0.72281   0.03635  Uiso   1.00
H1   H     0.11939   0.36176   0.57470   0.03635  Uiso   1.00
C2   C     0.39696   0.87010   0.18675   0.02601  Uiso   1.00
N1   N     0.46738   0.91001   0.18309   0.01981  Uiso   1.00
H2   H     0.35654   0.87741   0.22281   0.03635  Uiso   1.00
H1   H     0.61939   0.86176   0.07470   0.03635  Uiso   1.00
C2   C     0.10304   0.62990   0.68675   0.02601  Uiso   1.00
N1   N     0.03262   0.58999   0.68309   0.01981  Uiso   1.00
H2   H     0.14346   0.62259   0.72281   0.03635  Uiso   1.00
H1   H     0.88061   0.63824   0.57470   0.03635  Uiso   1.00
C2   C     0.60304   0.12990   0.18675   0.02601  Uiso   1.00
N1   N     0.53262   0.08999   0.18309   0.01981  Uiso   1.00
H2   H     0.64346   0.12259   0.22281   0.03635  Uiso   1.00
H1   H     0.38061   0.13824   0.07470   0.03635  Uiso   1.00
C2   C     0.89696   0.62990   0.31325   0.02601  Uiso   1.00
N1   N     0.96738   0.58999   0.31691   0.01981  Uiso   1.00
H2   H     0.85654   0.62259   0.27719   0.03635  Uiso   1.00
H1   H     0.11939   0.63824   0.42530   0.03635  Uiso   1.00
C2   C     0.39696   0.12990   0.81325   0.02601  Uiso   1.00
N1   N     0.46738   0.08999   0.81691   0.01981  Uiso   1.00
H2   H     0.35654   0.12259   0.77719   0.03635  Uiso   1.00
H1   H     0.61939   0.13824   0.92530   0.03635  Uiso   1.00
C2   C     0.10304   0.37010   0.31325   0.02601  Uiso   1.00
N1   N     0.03262   0.41001   0.31691   0.01981  Uiso   1.00
H2   H     0.14346   0.37741   0.27719   0.03635  Uiso   1.00
H1   H     0.88061   0.36176   0.42530   0.03635  Uiso   1.00
C2   C     0.60304   0.87010   0.81325   0.02601  Uiso   1.00
N1   N     0.53262   0.91001   0.81691   0.01981  Uiso   1.00
H2   H     0.64346   0.87741   0.77719   0.03635  Uiso   1.00
H1   H     0.38061   0.86176   0.92530   0.03635  Uiso   1.00
C2   C     0.37010   0.68675   0.89696   0.02601  Uiso   1.00
N1   N     0.41001   0.68309   0.96738   0.01981  Uiso   1.00
H2   H     0.37741   0.72281   0.85654   0.03635  Uiso   1.00
H1   H     0.36176   0.57470   0.11939   0.03635  Uiso   1.00
C2   C     0.87010   0.18675   0.39696   0.02601  Uiso   1.00
N1   N     0.91001   0.18309   0.46738   0.01981  Uiso   1.00
H2   H     0.87741   0.22281   0.35654   0.03635  Uiso   1.00
H1   H     0.86176   0.07470   0.61939   0.03635  Uiso   1.00
C2   C     0.62990   0.68675   0.10304   0.02601  Uiso   1.00
N1   N     0.58999   0.68309   0.03262   0.01981  Uiso   1.00
H2   H     0.62259   0.72281   0.14346   0.03635  Uiso   1.00
H1   H     0.63824   0.57470   0.88061   0.03635  Uiso   1.00
C2   C     0.12990   0.18675   0.60304   0.02601  Uiso   1.00
N1   N     0.08999   0.18309   0.53262   0.01981  Uiso   1.00
H2   H     0.12259   0.22281   0.64346   0.03635  Uiso   1.00
H1   H     0.13824   0.07470   0.38061   0.03635  Uiso   1.00
C2   C     0.62990   0.31325   0.89696   0.02601  Uiso   1.00
N1   N     0.58999   0.31691   0.96738   0.01981  Uiso   1.00
H2   H     0.62259   0.27719   0.85654   0.03635  Uiso   1.00
H1   H     0.63824   0.42530   0.11939   0.03635  Uiso   1.00
C2   C     0.12990   0.81325   0.39696   0.02601  Uiso   1.00
N1   N     0.08999   0.81691   0.46738   0.01981  Uiso   1.00
H2   H     0.12259   0.77719   0.35654   0.03635  Uiso   1.00
H1   H     0.13824   0.92530   0.61939   0.03635  Uiso   1.00
C2   C     0.37010   0.31325   0.10304   0.02601  Uiso   1.00
N1   N     0.41001   0.31691   0.03262   0.01981  Uiso   1.00
H2   H     0.37741   0.27719   0.14346   0.03635  Uiso   1.00
H1   H     0.36176   0.42530   0.88061   0.03635  Uiso   1.00
C2   C     0.87010   0.81325   0.60304   0.02601  Uiso   1.00
N1   N     0.91001   0.81691   0.53262   0.01981  Uiso   1.00
H2   H     0.87741   0.77719   0.64346   0.03635  Uiso   1.00
H1   H     0.86176   0.92530   0.38061   0.03635  Uiso   1.00
C2   C     0.68675   0.89696   0.37010   0.02601  Uiso   1.00
N1   N     0.68309   0.96738   0.41001   0.01981  Uiso   1.00
H2   H     0.72281   0.85654   0.37741   0.03635  Uiso   1.00
H1   H     0.57470   0.11939   0.36176   0.03635  Uiso   1.00
C2   C     0.18675   0.39696   0.87010   0.02601  Uiso   1.00
N1   N     0.18309   0.46738   0.91001   0.01981  Uiso   1.00
H2   H     0.22281   0.35654   0.87741   0.03635  Uiso   1.00
H1   H     0.07470   0.61939   0.86176   0.03635  Uiso   1.00
C2   C     0.68675   0.10304   0.62990   0.02601  Uiso   1.00
N1   N     0.68309   0.03262   0.58999   0.01981  Uiso   1.00
H2   H     0.72281   0.14346   0.62259   0.03635  Uiso   1.00
H1   H     0.57470   0.88061   0.63824   0.03635  Uiso   1.00
C2   C     0.18675   0.60304   0.12990   0.02601  Uiso   1.00
N1   N     0.18309   0.53262   0.08999   0.01981  Uiso   1.00
H2   H     0.22281   0.64346   0.12259   0.03635  Uiso   1.00
H1   H     0.07470   0.38061   0.13824   0.03635  Uiso   1.00
C2   C     0.31325   0.89696   0.62990   0.02601  Uiso   1.00
N1   N     0.31691   0.96738   0.58999   0.01981  Uiso   1.00
H2   H     0.27719   0.85654   0.62259   0.03635  Uiso   1.00
H1   H     0.42530   0.11939   0.63824   0.03635  Uiso   1.00
C2   C     0.81325   0.39696   0.12990   0.02601  Uiso   1.00
N1   N     0.81691   0.46738   0.08999   0.01981  Uiso   1.00
H2   H     0.77719   0.35654   0.12259   0.03635  Uiso   1.00
H1   H     0.92530   0.61939   0.13824   0.03635  Uiso   1.00
C2   C     0.31325   0.10304   0.37010   0.02601  Uiso   1.00
N1   N     0.31691   0.03262   0.41001   0.01981  Uiso   1.00
H2   H     0.27719   0.14346   0.37741   0.03635  Uiso   1.00
H1   H     0.42530   0.88061   0.36176   0.03635  Uiso   1.00
C2   C     0.81325   0.60304   0.87010   0.02601  Uiso   1.00
N1   N     0.81691   0.53262   0.91001   0.01981  Uiso   1.00
H2   H     0.77719   0.64346   0.87741   0.03635  Uiso   1.00
H1   H     0.92530   0.38061   0.86176   0.03635  Uiso   1.00
Zn1  Zn    0.50000   0.00000   0.75000   0.02187  Uiso   1.00
Zn1  Zn    0.50000   0.00000   0.25000   0.02187  Uiso   1.00
Zn1  Zn    0.75000   0.50000   0.00000   0.02187  Uiso   1.00
Zn1  Zn    0.25000   0.50000   0.00000   0.02187  Uiso   1.00
Zn1  Zn    0.00000   0.75000   0.50000   0.02187  Uiso   1.00
Zn1  Zn    0.00000   0.25000   0.50000   0.02187  Uiso   1.00
Zn1  Zn    0.00000   0.50000   0.75000   0.02187  Uiso   1.00
Zn1  Zn    0.00000   0.50000   0.25000   0.02187  Uiso   1.00
Zn1  Zn    0.50000   0.75000   0.00000   0.02187  Uiso   1.00
Zn1  Zn    0.50000   0.25000   0.00000   0.02187  Uiso   1.00
Zn1  Zn    0.75000   0.00000   0.50000   0.02187  Uiso   1.00
Zn1  Zn    0.25000   0.00000   0.50000   0.02187  Uiso   1.00
C3   C     0.37711   0.00113   0.62289   0.02394  Uiso   1.00
C1   C     0.40417   0.08456   0.59583   0.02698  Uiso   1.00
H1   H     0.44154   0.08251   0.55846   0.03635  Uiso   1.00
C3   C     0.87711   0.50113   0.12289   0.02394  Uiso   1.00
C1   C     0.90417   0.58456   0.09583   0.02698  Uiso   1.00
H1   H     0.94154   0.58251   0.05846   0.03635  Uiso   1.00
C3   C     0.62289   0.99887   0.62289   0.02394  Uiso   1.00
C1   C     0.59583   0.91544   0.59583   0.02698  Uiso   1.00
H1   H     0.55846   0.91749   0.55846   0.03635  Uiso   1.00
C3   C     0.12289   0.49887   0.12289   0.02394  Uiso   1.00
C1   C     0.09583   0.41544   0.09583   0.02698  Uiso   1.00
H1   H     0.05846   0.41749   0.05846   0.03635  Uiso   1.00
C3   C     0.62289   0.00113   0.37711   0.02394  Uiso   1.00
C1   C     0.59583   0.08456   0.40417   0.02698  Uiso   1.00
H1   H     0.55846   0.08251   0.44154   0.03635  Uiso   1.00
C3   C     0.12289   0.50113   0.87711   0.02394  Uiso   1.00
C1   C     0.09583   0.58456   0.90417   0.02698  Uiso   1.00
H1   H     0.05846   0.58251   0.94154   0.03635  Uiso   1.00
C3   C     0.37711   0.99887   0.37711   0.02394  Uiso   1.00
C1   C     0.40417   0.91544   0.40417   0.02698  Uiso   1.00
H1   H     0.44154   0.91749   0.44154   0.03635  Uiso   1.00
C3   C     0.87711   0.49887   0.87711   0.02394  Uiso   1.00
C1   C     0.90417   0.41544   0.90417   0.02698  Uiso   1.00
H1   H     0.94154   0.41749   0.94154   0.03635  Uiso   1.00
C3   C     0.62289   0.37711   0.00113   0.02394  Uiso   1.00
C1   C     0.59583   0.40417   0.08456   0.02698  Uiso   1.00
H1   H     0.55846   0.44154   0.08251   0.03635  Uiso   1.00
C3   C     0.12289   0.87711   0.50113   0.02394  Uiso   1.00
C1   C     0.09583   0.90417   0.58456   0.02698  Uiso   1.00
H1   H     0.05846   0.94154   0.58251   0.03635  Uiso   1.00
C3   C     0.62289   0.62289   0.99887   0.02394  Uiso   1.00
C1   C     0.59583   0.59583   0.91544   0.02698  Uiso   1.00
H1   H     0.55846   0.55846   0.91749   0.03635  Uiso   1.00
C3   C     0.12289   0.12289   0.49887   0.02394  Uiso   1.00
C1   C     0.09583   0.09583   0.41544   0.02698  Uiso   1.00
H1   H     0.05846   0.05846   0.41749   0.03635  Uiso   1.00
C3   C     0.37711   0.62289   0.00113   0.02394  Uiso   1.00
C1   C     0.40417   0.59583   0.08456   0.02698  Uiso   1.00
H1   H     0.44154   0.55846   0.08251   0.03635  Uiso   1.00
C3   C     0.87711   0.12289   0.50113   0.02394  Uiso   1.00
C1   C     0.90417   0.09583   0.58456   0.02698  Uiso   1.00
H1   H     0.94154   0.05846   0.58251   0.03635  Uiso   1.00
C3   C     0.37711   0.37711   0.99887   0.02394  Uiso   1.00
C1   C     0.40417   0.40417   0.91544   0.02698  Uiso   1.00
H1   H     0.44154   0.44154   0.91749   0.03635  Uiso   1.00
C3   C     0.87711   0.87711   0.49887   0.02394  Uiso   1.00
C1   C     0.90417   0.90417   0.41544   0.02698  Uiso   1.00
H1   H     0.94154   0.94154   0.41749   0.03635  Uiso   1.00
C3   C     0.00113   0.62289   0.37711   0.02394  Uiso   1.00
C1   C     0.08456   0.59583   0.40417   0.02698  Uiso   1.00
H1   H     0.08251   0.55846   0.44154   0.03635  Uiso   1.00
C3   C     0.50113   0.12289   0.87711   0.02394  Uiso   1.00
C1   C     0.58456   0.09583   0.90417   0.02698  Uiso   1.00
H1   H     0.58251   0.05846   0.94154   0.03635  Uiso   1.00
C3   C     0.99887   0.62289   0.62289   0.02394  Uiso   1.00
C1   C     0.91544   0.59583   0.59583   0.02698  Uiso   1.00
H1   H     0.91749   0.55846   0.55846   0.03635  Uiso   1.00
C3   C     0.49887   0.12289   0.12289   0.02394  Uiso   1.00
C1   C     0.41544   0.09583   0.09583   0.02698  Uiso   1.00
H1   H     0.41749   0.05846   0.05846   0.03635  Uiso   1.00
C3   C     0.00113   0.37711   0.62289   0.02394  Uiso   1.00
C1   C     0.08456   0.40417   0.59583   0.02698  Uiso   1.00
H1   H     0.08251   0.44154   0.55846   0.03635  Uiso   1.00
C3   C     0.50113   0.87711   0.12289   0.02394  Uiso   1.00
C1   C     0.58456   0.90417   0.09583   0.02698  Uiso   1.00
H1   H     0.58251   0.94154   0.05846   0.03635  Uiso   1.00
C3   C     0.99887   0.37711   0.37711   0.02394  Uiso   1.00
C1   C     0.91544   0.40417   0.40417   0.02698  Uiso   1.00
H1   H     0.91749   0.44154   0.44154   0.03635  Uiso   1.00
C3   C     0.49887   0.87711   0.87711   0.02394  Uiso   1.00
C1   C     0.41544   0.90417   0.90417   0.02698  Uiso   1.00
H1   H     0.41749   0.94154   0.94154   0.03635  Uiso   1.00
loop_
_geom_bond_atom_site_label_1
_geom_bond_atom_site_label_2
_geom_bond_distance
_geom_bond_site_symmetry_2
_ccdc_geom_bond_type
C1     N2      1.377   .     A
C1     H3      0.929   .     S
C1     C177    1.366   .     A
N2     Zn193   1.985   1_565 S
N2     C205    1.299   1_565 A
H4     C206    0.999   .     S
C5     N6      1.377   .     A
C5     H7      0.929   .     S
C5     C181    1.366   .     A
N6     Zn200   1.985   1_655 S
N6     C208    1.299   .     A
H8     C209    0.999   .     S
C9     N10     1.377   .     A
C9     H11     0.929   .     S
C9     C169    1.366   .     A
N10    Zn193   1.985   .     S
N10    C211    1.299   1_545 A
H12    C212    0.999   .     S
C13    N14     1.377   .     A
C13    H15     0.929   .     S
C13    C173    1.366   .     A
N14    Zn200   1.985   .     S
N14    C214    1.299   .     A
H16    C215    0.999   .     S
C17    N18     1.377   .     A
C17    H19     0.929   .     S
C17    C161    1.366   .     A
N18    Zn194   1.985   1_565 S
N18    C217    1.299   1_565 A
H20    C218    0.999   .     S
C21    N22     1.377   .     A
C21    H23     0.929   .     S
C21    C165    1.366   .     A
N22    Zn199   1.985   .     S
N22    C220    1.299   .     A
H24    C221    0.999   .     S
C25    N26     1.377   .     A
C25    H27     0.929   .     S
C25    C185    1.366   .     A
N26    Zn194   1.985   .     S
N26    C223    1.299   1_545 A
H28    C224    0.999   .     S
C29    N30     1.377   .     A
C29    H31     0.929   .     S
C29    C189    1.366   .     A
N30    Zn199   1.985   1_655 S
N30    C226    1.299   .     A
H32    C227    0.999   .     S
C33    N34     1.377   .     A
C33    H35     0.929   .     S
C33    C145    1.366   .     A
N34    Zn195   1.985   1_556 S
N34    C229    1.299   1_556 A
H36    C230    0.999   .     S
C37    N38     1.377   .     A
C37    H39     0.929   .     S
C37    C149    1.366   .     A
N38    Zn204   1.985   1_565 S
N38    C232    1.299   .     A
H40    C233    0.999   .     S
C41    N42     1.377   .     A
C41    H43     0.929   .     S
C41    C137    1.366   .     A
N42    Zn195   1.985   .     S
N42    C235    1.299   1_554 A
H44    C236    0.999   .     S
C45    N46     1.377   .     A
C45    H47     0.929   .     S
C45    C141    1.366   .     A
N46    Zn204   1.985   .     S
N46    C238    1.299   .     A
H48    C239    0.999   .     S
C49    N50     1.377   .     A
C49    H51     0.929   .     S
C49    C129    1.366   .     A
N50    Zn196   1.985   1_556 S
N50    C241    1.299   1_556 A
H52    C242    0.999   .     S
C53    N54     1.377   .     A
C53    H55     0.929   .     S
C53    C133    1.366   .     A
N54    Zn203   1.985   .     S
N54    C244    1.299   .     A
H56    C245    0.999   .     S
C57    N58     1.377   .     A
C57    H59     0.929   .     S
C57    C153    1.366   .     A
N58    Zn196   1.985   .     S
N58    C247    1.299   1_554 A
H60    C248    0.999   .     S
C61    N62     1.377   .     A
C61    H63     0.929   .     S
C61    C157    1.366   .     A
N62    Zn203   1.985   1_565 S
N62    C250    1.299   .     A
H64    C251    0.999   .     S
C65    N66     1.377   .     A
C65    H67     0.929   .     S
C65    C113    1.366   .     A
N66    Zn197   1.985   1_655 S
N66    C253    1.299   1_655 A
H68    C254    0.999   .     S
C69    N70     1.377   .     A
C69    H71     0.929   .     S
C69    C117    1.366   .     A
N70    Zn202   1.985   1_556 S
N70    C256    1.299   .     A
H72    C257    0.999   .     S
C73    N74     1.377   .     A
C73    H75     0.929   .     S
C73    C105    1.366   .     A
N74    Zn197   1.985   .     S
N74    C259    1.299   1_455 A
H76    C260    0.999   .     S
C77    N78     1.377   .     A
C77    H79     0.929   .     S
C77    C109    1.366   .     A
N78    Zn202   1.985   .     S
N78    C262    1.299   .     A
H80    C263    0.999   .     S
C81    N82     1.377   .     A
C81    H83     0.929   .     S
C81    C97     1.366   .     A
N82    Zn198   1.985   1_655 S
N82    C265    1.299   1_655 A
H84    C266    0.999   .     S
C85    N86     1.377   .     A
C85    H87     0.929   .     S
C85    C101    1.366   .     A
N86    Zn201   1.985   .     S
N86    C268    1.299   .     A
H88    C269    0.999   .     S
C89    N90     1.377   .     A
C89    H91     0.929   .     S
C89    C121    1.366   .     A
N90    Zn198   1.985   .     S
N90    C271    1.299   1_455 A
H92    C272    0.999   .     S
C93    N94     1.377   .     A
C93    H95     0.929   .     S
C93    C125    1.366   .     A
N94    Zn201   1.985   1_556 S
N94    C274    1.299   .     A
H96    C275    0.999   .     S
C97    N98     1.377   .     A
C97    H99     0.929   .     S
N98    Zn199   1.985   1_655 S
N98    C265    1.299   1_655 A
H100   C266    0.999   .     S
C101   N102    1.377   .     A
C101   H103    0.929   .     S
N102   Zn194   1.985   1_565 S
N102   C268    1.299   .     A
H104   C269    0.999   .     S
C105   N106    1.377   .     A
C105   H107    0.929   .     S
N106   Zn199   1.985   .     S
N106   C259    1.299   1_455 A
H108   C260    0.999   .     S
C109   N110    1.377   .     A
C109   H111    0.929   .     S
N110   Zn194   1.985   .     S
N110   C262    1.299   .     A
H112   C263    0.999   .     S
C113   N114    1.377   .     A
C113   H115    0.929   .     S
N114   Zn200   1.985   1_655 S
N114   C253    1.299   1_655 A
H116   C254    0.999   .     S
C117   N118    1.377   .     A
C117   H119    0.929   .     S
N118   Zn193   1.985   .     S
N118   C256    1.299   .     A
H120   C257    0.999   .     S
C121   N122    1.377   .     A
C121   H123    0.929   .     S
N122   Zn200   1.985   .     S
N122   C271    1.299   1_455 A
H124   C272    0.999   .     S
C125   N126    1.377   .     A
C125   H127    0.929   .     S
N126   Zn193   1.985   1_565 S
N126   C274    1.299   .     A
H128   C275    0.999   .     S
C129   N130    1.377   .     A
C129   H131    0.929   .     S
N130   Zn201   1.985   1_556 S
N130   C241    1.299   1_556 A
H132   C242    0.999   .     S
C133   N134    1.377   .     A
C133   H135    0.929   .     S
N134   Zn198   1.985   1_655 S
N134   C244    1.299   .     A
H136   C245    0.999   .     S
C137   N138    1.377   .     A
C137   H139    0.929   .     S
N138   Zn201   1.985   .     S
N138   C235    1.299   1_554 A
H140   C236    0.999   .     S
C141   N142    1.377   .     A
C141   H143    0.929   .     S
N142   Zn198   1.985   .     S
N142   C238    1.299   .     A
H144   C239    0.999   .     S
C145   N146    1.377   .     A
C145   H147    0.929   .     S
N146   Zn202   1.985   1_556 S
N146   C229    1.299   1_556 A
H148   C230    0.999   .     S
C149   N150    1.377   .     A
C149   H151    0.929   .     S
N150   Zn197   1.985   .     S
N150   C232    1.299   .     A
H152   C233    0.999   .     S
C153   N154    1.377   .     A
C153   H155    0.929   .     S
N154   Zn202   1.985   .     S
N154   C247    1.299   1_554 A
H156   C248    0.999   .     S
C157   N158    1.377   .     A
C157   H159    0.929   .     S
N158   Zn197   1.985   1_655 S
N158   C250    1.299   .     A
H160   C251    0.999   .     S
C161   N162    1.377   .     A
C161   H163    0.929   .     S
N162   Zn203   1.985   1_565 S
N162   C217    1.299   1_565 A
H164   C218    0.999   .     S
C165   N166    1.377   .     A
C165   H167    0.929   .     S
N166   Zn196   1.985   1_556 S
N166   C220    1.299   .     A
H168   C221    0.999   .     S
C169   N170    1.377   .     A
C169   H171    0.929   .     S
N170   Zn203   1.985   .     S
N170   C211    1.299   1_545 A
H172   C212    0.999   .     S
C173   N174    1.377   .     A
C173   H175    0.929   .     S
N174   Zn196   1.985   .     S
N174   C214    1.299   .     A
H176   C215    0.999   .     S
C177   N178    1.377   .     A
C177   H179    0.929   .     S
N178   Zn204   1.985   1_565 S
N178   C205    1.299   1_565 A
H180   C206    0.999   .     S
C181   N182    1.377   .     A
C181   H183    0.929   .     S
N182   Zn195   1.985   .     S
N182   C208    1.299   .     A
H184   C209    0.999   .     S
C185   N186    1.377   .     A
C185   H187    0.929   .     S
N186   Zn204   1.985   .     S
N186   C223    1.299   1_545 A
H188   C224    0.999   .     S
C189   N190    1.377   .     A
C189   H191    0.929   .     S
N190   Zn195   1.985   1_556 S
N190   C226    1.299   .     A
H192   C227    0.999   .     S
Zn193  N2      1.985   1_545 S
Zn193  N126    1.985   1_545 S
Zn194  N18     1.985   1_545 S
Zn194  N102    1.985   1_545 S
Zn195  N34     1.985   1_554 S
Zn195  N190    1.985   1_554 S
Zn196  N50     1.985   1_554 S
Zn196  N166    1.985   1_554 S
Zn197  N66     1.985   1_455 S
Zn197  N158    1.985   1_455 S
Zn198  N82     1.985   1_455 S
Zn198  N134    1.985   1_455 S
Zn199  N98     1.985   1_455 S
Zn199  N30     1.985   1_455 S
Zn200  N114    1.985   1_455 S
Zn200  N6      1.985   1_455 S
Zn201  N130    1.985   1_554 S
Zn201  N94     1.985   1_554 S
Zn202  N146    1.985   1_554 S
Zn202  N70     1.985   1_554 S
Zn203  N162    1.985   1_545 S
Zn203  N62     1.985   1_545 S
Zn204  N178    1.985   1_545 S
Zn204  N38     1.985   1_545 S
C205   N2      1.299   1_545 A
C205   N178    1.299   1_545 A
C205   C206    1.560   .     S
C206   H207    0.899   .     S
C208   C209    1.560   .     S
C209   H210    0.899   .     S
C211   N10     1.299   1_565 A
C211   N170    1.299   1_565 A
C211   C212    1.560   .     S
C212   H213    0.899   .     S
C214   C215    1.560   .     S
C215   H216    0.899   .     S
C217   N18     1.299   1_545 A
C217   N162    1.299   1_545 A
C217   C218    1.560   .     S
C218   H219    0.899   .     S
C220   C221    1.560   .     S
C221   H222    0.899   .     S
C223   N26     1.299   1_565 A
C223   N186    1.299   1_565 A
C223   C224    1.560   .     S
C224   H225    0.899   .     S
C226   C227    1.560   .     S
C227   H228    0.899   .     S
C229   N34     1.299   1_554 A
C229   N146    1.299   1_554 A
C229   C230    1.560   .     S
C230   H231    0.899   .     S
C232   C233    1.560   .     S
C233   H234    0.899   .     S
C235   N42     1.299   1_556 A
C235   N138    1.299   1_556 A
C235   C236    1.560   .     S
C236   H237    0.899   .     S
C238   C239    1.560   .     S
C239   H240    0.899   .     S
C241   N50     1.299   1_554 A
C241   N130    1.299   1_554 A
C241   C242    1.560   .     S
C242   H243    0.899   .     S
C244   C245    1.560   .     S
C245   H246    0.899   .     S
C247   N58     1.299   1_556 A
C247   N154    1.299   1_556 A
C247   C248    1.560   .     S
C248   H249    0.899   .     S
C250   C251    1.560   .     S
C251   H252    0.899   .     S
C253   N66     1.299   1_455 A
C253   N114    1.299   1_455 A
C253   C254    1.560   .     S
C254   H255    0.899   .     S
C256   C257    1.560   .     S
C257   H258    0.899   .     S
C259   N74     1.299   1_655 A
C259   N106    1.299   1_655 A
C259   C260    1.560   .     S
C260   H261    0.899   .     S
C262   C263    1.560   .     S
C263   H264    0.899   .     S
C265   N82     1.299   1_455 A
C265   N98     1.299   1_455 A
C265   C266    1.560   .     S
C266   H267    0.899   .     S
C268   C269    1.560   .     S
C269   H270    0.899   .     S
C271   N90     1.299   1_655 A
C271   N122    1.299   1_655 A
C271   C272    1.560   .     S
C272   H273    0.899   .     S
C274   C275    1.560   .     S
C275   H276    0.899   .     S
